BEGIN Configuration File: setup/spmv_learning_bal.cfg
//num_proc = 4;
//mem_size = 16;
//tlb_size = 256;
//page_size = 4;
//x_dim = 4;
//y_dim = 4;
//topology = init/topo/mesh_4x4;
//r_algo = XY;
//router_stages = 2;
//max_mcq_size = 16;
//mem_acc_lat = 100;
//mem_row_hit_lat = 25;
//mem_row_miss_lat = 120;
//mem_queue_size = 256;
//num_vaults = 64;
//banks_per_vault = 8;
//resp_q_size = 4096;
//pkt_buffer_per_vc = 16;
//req_pkt_size = 16;//in Bytes
//resp_pkt_size = 72;//in Bytes
//link_width = 16;//in Bytes --> 128 bit
//port_positions = {0,3,12,15};
//num_port = 4;
//router_radix = 6;
//num_vnet = 3; 
load_balance_baseline = 1;//load balance off by default
  
num_state_subgraph_entries = 8;

perceptron_size = 16;//number of inputs and weights
neural_circuit_size = 5;//number of perceptrons in the neural circuit 
neural_cache_threshold = 150.0;//need to fix emperically  
num_neural_ckt = 32;//this value also needs to be tuned: Power of 2
max_hop_avg = 8;
  
dis_migr = 0;//by default migration is on
dis_migr_sim = 0;//by default migration is on
dis_training = 0;//by default training is on
//pg_allocation_policy = aimmu;
pg_allocation_policy = noalloc;
//pg_allocation_policy = allalloc;

watch_packet = -1;
stats_file = spmv_learning_bal;

//max_tot_mem_acc = 0x2710;//10,000  
//max_tot_mem_acc = 0x40896;//10,000,000  
//max_tot_mem_acc = 0x989680;//10,000,000  
//max_tot_mem_acc = 0x5f5e100;//100,000,000  

//max_tot_rollovers = 0xC8;//200 rollovers  
//max_tot_rollovers = 0x64;//100 rollovers  
//max_tot_rollovers = 0x1E;//30 rollovers  
//max_tot_rollovers = 0xA;//10 rollovers  
//max_tot_rollovers = 0x2;//2 rollovers  
//max_tot_rollovers = 0x1;//1 rollovers  

runfile = runlists/spmv;  
trace_folder = ../../../../trace_folder/benchmarks/naive-art;
//backprop_trace_limit = 3354;
//lud_trace_limit = 629;
//pagerank_trace_limit =  595;
//rbm_trace_limit = 1133;
//sgemm_trace_limit = 2;
//spmv_trace_limit = 502;

//adaptive_epoch_folder = adaptive_epoch_spmv;//folder to store the adaptive epoch series
adaptive_epoch_series = adaptive_epoch_;//file/series name
//hop_avg_folder = hop_avg_spmv;//folder name
hop_avg_series = hop_avg_;//file/series name
hop_avg_freq = 100;
//pg_profile_folder = tests/pg_reuse_pred/input/spmv.pg; 

END Configuration File: setup/spmv_learning_bal.cfg

[WRAPPER] Reding config file: setup/spmv_learning_bal.cfg
[SIM] reading runlist ...from runlists/spmv
proc: OpsInACube cycle;  -1
proc: OpsInNearCubes cycle;  -1
proc: OpsInFarCubes cycle;  -1
proc: one cycle;  -1
proc: two cycle;  -1
proc: lud cycle;  -1
proc: four cycle;  -1
proc: dnn_ker cycle;  -1
proc: dnn_ker_2 cycle;  -1
proc: backprop cycle;  -1
proc: lud_trace cycle;  -1
proc: pagerank cycle;  -1
proc: rbm cycle;  -1
proc: spmv cycle;  0
proc: mac cycle;  -1
proc: reduce cycle;  -1
proc: kmeans cycle;  -1
proc: sgemm cycle;  -1
proc: svm cycle;  -1
proc: streamcluster cycle;  -1
[SIM] Finished reading runlist successfully ...
Ports are:  0 3 12 15
mem_size: 16
page_size: 4
size_per_node: 1
x_dim: 4
y_dim: 4
 OpsInACube ========================== launch cycle:  -1
 OpsInFarCubes ========================== launch cycle:  -1
 OpsInNearCubes ========================== launch cycle:  -1
 backprop ========================== launch cycle:  -1
 dnn_ker ========================== launch cycle:  -1
 dnn_ker_2 ========================== launch cycle:  -1
 four ========================== launch cycle:  -1
 kmeans ========================== launch cycle:  -1
 lud ========================== launch cycle:  -1
 lud_trace ========================== launch cycle:  -1
 mac ========================== launch cycle:  -1
 one ========================== launch cycle:  -1
 pagerank ========================== launch cycle:  -1
 rbm ========================== launch cycle:  -1
 reduce ========================== launch cycle:  -1
 sgemm ========================== launch cycle:  -1
 spmv ========================== launch cycle:  0
Process: spmv will be launched @0 cycle(s)
cmp_net deques for core: 0 port: 0
cmp_net deques for core: 0 port: 1
cmp_net deques for core: 0 port: 2
cmp_net deques for core: 0 port: 3
cmp_net deques for core: 1 port: 0
cmp_net deques for core: 1 port: 1
cmp_net deques for core: 1 port: 2
cmp_net deques for core: 1 port: 3
cmp_net deques for core: 2 port: 0
cmp_net deques for core: 2 port: 1
cmp_net deques for core: 2 port: 2
cmp_net deques for core: 2 port: 3
cmp_net deques for core: 3 port: 0
cmp_net deques for core: 3 port: 1
cmp_net deques for core: 3 port: 2
cmp_net deques for core: 3 port: 3
cmp_net deques for core: 4 port: 0
cmp_net deques for core: 4 port: 1
cmp_net deques for core: 4 port: 2
cmp_net deques for core: 4 port: 3
cmp_net deques for core: 5 port: 0
cmp_net deques for core: 5 port: 1
cmp_net deques for core: 5 port: 2
cmp_net deques for core: 5 port: 3
cmp_net deques for core: 6 port: 0
cmp_net deques for core: 6 port: 1
cmp_net deques for core: 6 port: 2
cmp_net deques for core: 6 port: 3
cmp_net deques for core: 7 port: 0
cmp_net deques for core: 7 port: 1
cmp_net deques for core: 7 port: 2
cmp_net deques for core: 7 port: 3
cmp_net deques for core: 8 port: 0
cmp_net deques for core: 8 port: 1
cmp_net deques for core: 8 port: 2
cmp_net deques for core: 8 port: 3
cmp_net deques for core: 9 port: 0
cmp_net deques for core: 9 port: 1
cmp_net deques for core: 9 port: 2
cmp_net deques for core: 9 port: 3
cmp_net deques for core: 10 port: 0
cmp_net deques for core: 10 port: 1
cmp_net deques for core: 10 port: 2
cmp_net deques for core: 10 port: 3
cmp_net deques for core: 11 port: 0
cmp_net deques for core: 11 port: 1
cmp_net deques for core: 11 port: 2
cmp_net deques for core: 11 port: 3
cmp_net deques for core: 12 port: 0
cmp_net deques for core: 12 port: 1
cmp_net deques for core: 12 port: 2
cmp_net deques for core: 12 port: 3
cmp_net deques for core: 13 port: 0
cmp_net deques for core: 13 port: 1
cmp_net deques for core: 13 port: 2
cmp_net deques for core: 13 port: 3
cmp_net deques for core: 14 port: 0
cmp_net deques for core: 14 port: 1
cmp_net deques for core: 14 port: 2
cmp_net deques for core: 14 port: 3
cmp_net deques for core: 15 port: 0
cmp_net deques for core: 15 port: 1
cmp_net deques for core: 15 port: 2
cmp_net deques for core: 15 port: 3
text: 400000 - 4ec000
heap: 6ee000
stack: 7ffffffdd000
available space for heap and stack: 7fffff8ef000
shared: 7ffdd2931000 - 7ffff7ffd000
spmv trace path: ../../../../trace_folder/benchmarks/naive-art
folder path = ../../../../trace_folder/benchmarks/naive-art bench: spmv trace limit: 502
++++++++++++++++++spmv  PID: 0
 streamcluster ========================== launch cycle:  -1
 svm ========================== launch cycle:  -1
 two ========================== launch cycle:  -1
recoding data for: spmv_learning_bal
the series name: opc_avg_06-38-14-03-07-2024.csv
recoding data for: spmv_learning_bal
the series name: hop_avg_06-38-14-03-07-2024.csv
recoding data for: spmv_learning_bal
the series name: migr_count_06-38-14-03-07-2024.csv
recoding data for: spmv_learning_bal
the series name: mig_freq_avg_06-38-14-03-07-2024.csv
recoding data for: spmv_learning_bal
the series name: pim_tab_occ_count_06-38-14-03-07-2024.csv
recoding data for: spmv_learning_bal
the series name: active_pages_06-38-14-03-07-2024.csv
 init/topo/mesh_4x4.ini
reading topology ...from init/topo/mesh_4x4.ini

<<<<<<<<<<<<<<<<<<< creating physical memory frames >>>>>>>>>>>>>>>>>>>
 x_dim: 4 y_dim: 4 _mem_size: 16 _page_frame_size: 4 _num_nodes: 16 _size_per_node: 1 _tot_frame_per_cube: 262144
|||||||||||||||||||||||| _unallocated_frames: 262144
|||||||||||||||||||||||| _unallocated_frames: 262144
|||||||||||||||||||||||| _unallocated_frames: 262144
|||||||||||||||||||||||| _unallocated_frames: 262144
|||||||||||||||||||||||| _unallocated_frames: 262144
|||||||||||||||||||||||| _unallocated_frames: 262144
|||||||||||||||||||||||| _unallocated_frames: 262144
|||||||||||||||||||||||| _unallocated_frames: 262144
|||||||||||||||||||||||| _unallocated_frames: 262144
|||||||||||||||||||||||| _unallocated_frames: 262144
|||||||||||||||||||||||| _unallocated_frames: 262144
|||||||||||||||||||||||| _unallocated_frames: 262144
|||||||||||||||||||||||| _unallocated_frames: 262144
|||||||||||||||||||||||| _unallocated_frames: 262144
|||||||||||||||||||||||| _unallocated_frames: 262144
|||||||||||||||||||||||| _unallocated_frames: 262144
 migration candiate queue size: 1
[MMU] Migration Queue size: 1 process
cmp_net deques for core: 0 port: 0
cmp_net deques for core: 0 port: 1
cmp_net deques for core: 0 port: 2
cmp_net deques for core: 0 port: 3
cmp_net deques for core: 1 port: 0
cmp_net deques for core: 1 port: 1
cmp_net deques for core: 1 port: 2
cmp_net deques for core: 1 port: 3
cmp_net deques for core: 2 port: 0
cmp_net deques for core: 2 port: 1
cmp_net deques for core: 2 port: 2
cmp_net deques for core: 2 port: 3
cmp_net deques for core: 3 port: 0
cmp_net deques for core: 3 port: 1
cmp_net deques for core: 3 port: 2
cmp_net deques for core: 3 port: 3
cmp_net deques for core: 4 port: 0
cmp_net deques for core: 4 port: 1
cmp_net deques for core: 4 port: 2
cmp_net deques for core: 4 port: 3
cmp_net deques for core: 5 port: 0
cmp_net deques for core: 5 port: 1
cmp_net deques for core: 5 port: 2
cmp_net deques for core: 5 port: 3
cmp_net deques for core: 6 port: 0
cmp_net deques for core: 6 port: 1
cmp_net deques for core: 6 port: 2
cmp_net deques for core: 6 port: 3
cmp_net deques for core: 7 port: 0
cmp_net deques for core: 7 port: 1
cmp_net deques for core: 7 port: 2
cmp_net deques for core: 7 port: 3
cmp_net deques for core: 8 port: 0
cmp_net deques for core: 8 port: 1
cmp_net deques for core: 8 port: 2
cmp_net deques for core: 8 port: 3
cmp_net deques for core: 9 port: 0
cmp_net deques for core: 9 port: 1
cmp_net deques for core: 9 port: 2
cmp_net deques for core: 9 port: 3
cmp_net deques for core: 10 port: 0
cmp_net deques for core: 10 port: 1
cmp_net deques for core: 10 port: 2
cmp_net deques for core: 10 port: 3
cmp_net deques for core: 11 port: 0
cmp_net deques for core: 11 port: 1
cmp_net deques for core: 11 port: 2
cmp_net deques for core: 11 port: 3
cmp_net deques for core: 12 port: 0
cmp_net deques for core: 12 port: 1
cmp_net deques for core: 12 port: 2
cmp_net deques for core: 12 port: 3
cmp_net deques for core: 13 port: 0
cmp_net deques for core: 13 port: 1
cmp_net deques for core: 13 port: 2
cmp_net deques for core: 13 port: 3
cmp_net deques for core: 14 port: 0
cmp_net deques for core: 14 port: 1
cmp_net deques for core: 14 port: 2
cmp_net deques for core: 14 port: 3
cmp_net deques for core: 15 port: 0
cmp_net deques for core: 15 port: 1
cmp_net deques for core: 15 port: 2
cmp_net deques for core: 15 port: 3
[SIM] reading MAP from--> filepath = tests/pg_reuse_pred/input/spmv.pg
[SIM] finished profile tests/pg_reuse_pred/input/spmv.pg
[SIM] creating stats variables ...
[SIM] ------ Initilization Done in SIM ------ 
*** unable to create stats directory ***
+++ WARNING: directory is already there | results will be overwritten +++
[WRAPPER MMU] ------ Constructor Finished -------- 
